/*--------------------------------*- C++ -*----------------------------------*\
| =========                 |                                                 |
| \\      /  F ield         | OpenFOAM: The Open Source CFD Toolbox           |
|  \\    /   O peration     | Version:  v2406                                 |
|   \\  /    A nd           | Website:  www.openfoam.com                      |
|    \\/     M anipulation  |                                                 |
\*---------------------------------------------------------------------------*/
FoamFile
{
    version     2.0;
    format      ascii;
    class       dictionary;
    object      blockMeshDict;
}
// * * * * * * * * * * * * * * * * * * * * * * * * * * * * * * * * * * * * * //

scale   0.001;                                        // all following lengths are in mm

// general geometry variables
pi 3.1415926535;
angleDeg 20;                                          // angle of the ramp
angle #eval{$angleDeg/180*$pi}; 
lengthRamp 337;                                       // length of the ramp
heigth 400;                                            // heigth to the upper wall
inletX 200;                                           // length of the inlet with noSlip BC
PreInletX 100;                                        // length of the inlet with slip BC // later refered to as PreInlet
outletX #eval{cos($angle)*$lengthRamp+5*$lengthRamp}; // length of outlet behind the ramp. 5x is a approximation which has to be testet
jetLowEdge 270;                                       // distance between the low edge of the jet and the end of the ramp
jetheigth 0.5;                                         // heigth of the Jet opening
width2D 0.1;
heigthMidPlane 25; //125                                   // heigth of the plane in the middle of the mesh to help refining the lower part
heigthUpperPlane 375; //350

angleRedSkewness0 #eval{$angleDeg/2};                  // angle of the plain above the edge. Different angle for the rounded to reduce the cell gradient // may lead to higher non-orthogonality
angleRedSkew0 #eval{$angleRedSkewness0/180*$pi}; 
angleRedSkewness1 #eval{$angleDeg/2};                  // angle of the left side of main block to reduce the skewness of the cell above the ramp
angleRedSkew1 #eval{$angleRedSkewness1/180*$pi};  
angleRedSkewness2 #eval{$angleDeg/2};;                // angle of the right side of the main block to reduce the skewness of the cell above the ramp
angleRedSkew2 #eval{$angleRedSkewness2/180*$pi};  

x1 -3;
x2 3;
y2 #eval{-$x2*tan($angle)};

xCent 0;
yCent -0.32;

// number of cells for each block  
nCellXPreInlet 40; 
nCellXInlet 150;
nCellXTrans 30;
nCellXMainLeft 140;
nCellXJet 1;
nCellXMainRight 325;
nCellXOutlet 700;

nCellY 210;
nCellYlow 75;
nCellYmiddle 75; 
nCellYhigh 75;

nCellZ 1;

// mesh grading 
GradXPreInlet 1;     // >1 to refine downstream
GradXInlet 6;        // >1 to refine downstream //2.8
GradXTrans 1;
GradXMainLeft 1.0;      
GradXJet 1.0;           
GradXMainRight 0.333;     
GradXOutlet 0.333;   

GradYLow 40.0;         // >1 to refine in direction of the wall  
GradYMiddle (8.0 0.125); 
GradYHigh 0.025;        //(2.0 0.5)

vertices
(
    (#eval{-$PreInletX-$inletX} 0 $width2D) // 0
    (#eval{-$PreInletX-$inletX} 0 -$width2D) // 1    
    (#eval{-$PreInletX-$inletX} $heigthMidPlane $width2D) // 2
    (#eval{-$PreInletX-$inletX} $heigthMidPlane -$width2D) // 3    
    (#eval{-$PreInletX-$inletX} $heigth $width2D) // 4
    (#eval{-$PreInletX-$inletX} $heigth -$width2D) // 5

    (-$inletX 0 $width2D)  // 6
    (-$inletX 0 -$width2D)  // 7
    (-$inletX $heigthMidPlane $width2D)  // 8
    (-$inletX $heigthMidPlane -$width2D)  // 9
    (-$inletX $heigth $width2D)  // 10
    (-$inletX $heigth -$width2D)  // 11
    
    ($x2 $y2 $width2D)  // 12
    ($x2 $y2 -$width2D)  // 13
    (#eval{tan($angleRedSkew0)*$heigthMidPlane+$x2} #eval{$heigthMidPlane+$y2} $width2D)  // 14
    (#eval{tan($angleRedSkew0)*$heigthMidPlane+$x2} #eval{$heigthMidPlane+$y2} -$width2D)  // 15
    (#eval{tan($angleRedSkew0)*$heigth+$x2} #eval{$heigth} $width2D)  // 16
    (#eval{tan($angleRedSkew0)*$heigth+$x2} #eval{$heigth} -$width2D)  // 17

    (#eval{cos($angle)*($lengthRamp-$jetLowEdge-$jetheigth)} #eval{-sin($angle)*($lengthRamp-$jetLowEdge-$jetheigth)} $width2D) // 18
    (#eval{cos($angle)*($lengthRamp-$jetLowEdge-$jetheigth)} #eval{-sin($angle)*($lengthRamp-$jetLowEdge-$jetheigth)} -$width2D) // 19
    (#eval{cos($angle)*($lengthRamp-$jetLowEdge-$jetheigth)+tan($angleRedSkew1)*($heigthMidPlane)} #eval{$heigthMidPlane-sin($angle)*($lengthRamp-$jetLowEdge-$jetheigth)} $width2D) // 20
    (#eval{cos($angle)*($lengthRamp-$jetLowEdge-$jetheigth)+tan($angleRedSkew1)*($heigthMidPlane)} #eval{$heigthMidPlane-sin($angle)*($lengthRamp-$jetLowEdge-$jetheigth)} -$width2D) // 21
    (#eval{cos($angle)*($lengthRamp-$jetLowEdge-$jetheigth)+tan($angleRedSkew1)*($heigth+(sin($angle)*($lengthRamp-$jetLowEdge-$jetheigth)))} $heigth $width2D) // 22
    (#eval{cos($angle)*($lengthRamp-$jetLowEdge-$jetheigth)+tan($angleRedSkew1)*($heigth+(sin($angle)*($lengthRamp-$jetLowEdge-$jetheigth)))} $heigth -$width2D) // 23

    (#eval{cos($angle)*($lengthRamp-$jetLowEdge)} #eval{-sin($angle)*($lengthRamp-$jetLowEdge)} $width2D) // 24
    (#eval{cos($angle)*($lengthRamp-$jetLowEdge)} #eval{-sin($angle)*($lengthRamp-$jetLowEdge)} -$width2D) // 25
    (#eval{cos($angle)*($lengthRamp-$jetLowEdge)+tan($angleRedSkew1)*($heigthMidPlane)} #eval{$heigthMidPlane-sin($angle)*($lengthRamp-$jetLowEdge)} $width2D) // 26
    (#eval{cos($angle)*($lengthRamp-$jetLowEdge)+tan($angleRedSkew1)*($heigthMidPlane)} #eval{$heigthMidPlane-sin($angle)*($lengthRamp-$jetLowEdge)} -$width2D) // 27
    (#eval{cos($angle)*($lengthRamp-$jetLowEdge)+tan($angleRedSkew1)*($heigth+(sin($angle)*($lengthRamp-$jetLowEdge)))} $heigth $width2D) // 28
    (#eval{cos($angle)*($lengthRamp-$jetLowEdge)+tan($angleRedSkew1)*($heigth+(sin($angle)*($lengthRamp-$jetLowEdge)))} $heigth -$width2D) // 29

    (#eval{cos($angle)*$lengthRamp} #eval{ (-1)*(sin($angle))*$lengthRamp} $width2D)  // 30
    (#eval{cos($angle)*$lengthRamp} #eval{ (-1)*(sin($angle))*$lengthRamp} -$width2D)  // 31
    (#eval{(cos($angle)*($lengthRamp))+(tan($angleRedSkew2)*$heigthMidPlane)} #eval{$heigthMidPlane-sin($angle)*($lengthRamp)} $width2D)  // 32
    (#eval{(cos($angle)*($lengthRamp))+(tan($angleRedSkew2)*$heigthMidPlane)} #eval{$heigthMidPlane-sin($angle)*($lengthRamp)} -$width2D)  // 33    
    (#eval{cos($angle)*($lengthRamp)+tan($angleRedSkew1)*($heigth+(sin($angle)*($lengthRamp)))} $heigth $width2D)  // 34
    (#eval{cos($angle)*($lengthRamp)+tan($angleRedSkew1)*($heigth+(sin($angle)*($lengthRamp)))} $heigth -$width2D)  // 35
    
    ($outletX #eval{ (-1)*sin($angle)*$lengthRamp} $width2D) // 36
    ($outletX #eval{ (-1)*sin($angle)*$lengthRamp} -$width2D) // 37
    ($outletX #eval{$heigthMidPlane-sin($angle)*($lengthRamp)} $width2D) // 38
    ($outletX #eval{$heigthMidPlane-sin($angle)*($lengthRamp)} -$width2D) // 39
    ($outletX $heigth $width2D) // 40
    ($outletX $heigth -$width2D) // 41    
    
    (#eval{-$PreInletX-$inletX} $heigthUpperPlane $width2D) // 42
    (#eval{-$PreInletX-$inletX} $heigthUpperPlane -$width2D) // 43
    (-$inletX $heigthUpperPlane $width2D)  // 44
    (-$inletX $heigthUpperPlane -$width2D)  // 45
    (#eval{tan($angleRedSkew0)*$heigthUpperPlane+$x2} #eval{$heigthUpperPlane} $width2D)  // 46
    (#eval{tan($angleRedSkew0)*$heigthUpperPlane+$x2} #eval{$heigthUpperPlane} -$width2D)  // 47
    (#eval{cos($angle)*($lengthRamp-$jetLowEdge-$jetheigth)+tan($angleRedSkew1)*($heigthUpperPlane+sin($angle)*($lengthRamp-$jetLowEdge-$jetheigth))} $heigthUpperPlane $width2D) // 48
    (#eval{cos($angle)*($lengthRamp-$jetLowEdge-$jetheigth)+tan($angleRedSkew1)*($heigthUpperPlane+sin($angle)*($lengthRamp-$jetLowEdge-$jetheigth))} $heigthUpperPlane -$width2D) // 49
    (#eval{cos($angle)*($lengthRamp-$jetLowEdge)+tan($angleRedSkew1)*($heigthUpperPlane+sin($angle)*($lengthRamp-$jetLowEdge))} $heigthUpperPlane $width2D) // 50
    (#eval{cos($angle)*($lengthRamp-$jetLowEdge)+tan($angleRedSkew1)*($heigthUpperPlane+sin($angle)*($lengthRamp-$jetLowEdge))} $heigthUpperPlane -$width2D) // 51
    (#eval{(cos($angle)*($lengthRamp))+(tan($angleRedSkew2)*($heigthUpperPlane+sin($angle)*($lengthRamp)))} $heigthUpperPlane $width2D)  // 52
    (#eval{(cos($angle)*($lengthRamp))+(tan($angleRedSkew2)*($heigthUpperPlane+sin($angle)*($lengthRamp)))} $heigthUpperPlane -$width2D)  // 53
    ($outletX $heigthUpperPlane $width2D) // 54
    ($outletX $heigthUpperPlane -$width2D) // 55

    ($x1 0 $width2D) // 56
    ($x1 0 -$width2D) // 57
    ($x1 $heigthMidPlane $width2D) // 58
    ($x1 $heigthMidPlane -$width2D) // 59
    ($x1 $heigthUpperPlane $width2D) // 60
    ($x1 $heigthUpperPlane -$width2D) // 61
    ($x1 $heigth $width2D) // 62
    ($x1 $heigth -$width2D) //63

);


edges
(
    arc 56 12 ($xCent $yCent $width2D)
    arc 57 13 ($xCent $yCent -$width2D)
    //arc 58 14 ($xCent #eval{$heigthMidPlane+$yCent} $width2D)
    //arc 59 15 ($xCent #eval{$heigthMidPlane+$yCent} -$width2D)
);


blocks
(
    hex (6 7 1 0 10 11 5 4)  // middle
    ($nCellZ $nCellXPreInlet $nCellY)
    simpleGrading 
    (
        1 
        $GradXPreInlet
        (
        (0.0625 0.333 30) // % of lenght , % of cells, grading 
        (0.375 0.222 1)
        (0.5 0.111 1)
        (0.0625 0.333 0.0333)
        )
    )

    hex (56 57 7 6 62 63 11 10) // middle
    ($nCellZ $nCellXInlet $nCellY)                 
    simpleGrading 
    (
        1 
        $GradXInlet
        (
        (0.0625 0.333 30) // % of lenght , % of cells, grading 
        (0.375 0.222 1)
        (0.5 0.111 1)
        (0.0625 0.333 0.0333)
        )
    )
    
    // transition

    hex (12 13 57 56 16 17 63 62) // middle
    ($nCellZ $nCellXTrans $nCellY)                 
    simpleGrading 
    (
        1 
        $GradXTrans
        (
        (0.0625 0.333 30) // % of lenght , % of cells, grading 
        (0.375 0.222 1)
        (0.5 0.111 1)
        (0.0625 0.333 0.0333)
        )
    )
    
    // Main 
    hex (18 19 13 12 22 23 17 16)  // left middle 
    ($nCellZ $nCellXMainLeft $nCellY)                 
    simpleGrading 
    (
        1 
        $GradXMainLeft 
        (
        (0.0625 0.333 30) // % of lenght , % of cells, grading 
        (0.375 0.222 1)
        (0.5 0.111 1)
        (0.0625 0.333 0.0333)
        )
    )

    hex (24 25 19 18 28 29 23 22) // jet middle
    ($nCellZ $nCellXJet $nCellY)                 
    simpleGrading 
    (
        1 
        $GradXJet 
        (
        (0.0625 0.333 30) // % of lenght , % of cells, grading 
        (0.375 0.222 1)
        (0.5 0.111 1)
        (0.0625 0.333 0.0333)
        )
    )

    hex (30 31 25 24 34 35 29 28)  // right middle 
    ($nCellZ $nCellXMainRight $nCellY)                 
    simpleGrading 
    (
        1 
        $GradXMainRight 
        (
        (0.0625 0.333 30) // % of lenght , % of cells, grading 
        (0.375 0.222 1)
        (0.5 0.111 1)
        (0.0625 0.333 0.0333)
        )
    )

    hex (36 37 31 30 40 41 35 34)  // middle
    ($nCellZ $nCellXOutlet $nCellY)                 
    simpleGrading 
    (
        1 
        $GradXOutlet 
        (
        (0.0625 0.333 30) // % of lenght , % of cells, grading 
        (0.375 0.222 1)
        (0.5 0.111 1)
        (0.0625 0.333 0.0333)
        )
    )

);

boundary
(
    inlet
    {
        type patch;
        faces
        (
           (0 1 5 4)
           
        );
    }
  
    outlet
    {
        type patch;
        faces
        (
            (36 37 41 40)
                                
        );
    }
    wallPreInlet
    {
        type wall;
        faces
        (
        // upper wall
        (10 11 5 4)
        // lower wall
        (6 7 1 0)
        );

    }
    upperWall
    {
        type wall;
        faces
        (
            (62 63 11 10)
            (16 17 63 62)
            (22 23 17 16)
            (28 29 23 22)
            (34 35 29 28)
            (40 41 35 34)       
        );
    }
    lowerWall  
    {
        type wall;
        faces
        (
            (56 57 7 6)
            (12 13 57 56)
            (18 19 13 12)
            
            (30 31 25 24)
            (36 37 31 30)                             
        );
    }
    Jet
    {
        type wall;   // just to try without the jet active
        faces 
        (
            (25 19 18 24)
        );
    }
    frontAndBack
    {
        type            empty;
        faces
        (
            // front
            (6 10 4 0)
            
            (56 62 10 6)
            
            (12 16 62 56)
            
            (18 22 16 12)
            
            (24 28 22 18)
            
            (30 34 28 24)
            
            (36 40 34 30)
                        
            // back 
            (7 11 5 1)
            
            (57 63 11 7) 
                        
            (13 17 63 57)
            
            (19 23 17 13)
            
            (25 29 23 19)
            
            (31 35 29 25)
            
            (37 41 35 31)
                       
        );
    }
);


// ************************************************************************* //