/*--------------------------------*- C++ -*----------------------------------*\
| =========                 |                                                 |
| \\      /  F ield         | OpenFOAM: The Open Source CFD Toolbox           |
|  \\    /   O peration     | Version:  v2406                                 |
|   \\  /    A nd           | Website:  www.openfoam.com                      |
|    \\/     M anipulation  |                                                 |
\*---------------------------------------------------------------------------*/
FoamFile
{
    version     2.0;
    format      ascii;
    class       dictionary;
    object      fvSchemes;
}
// * * * * * * * * * * * * * * * * * * * * * * * * * * * * * * * * * * * * * //

ddtSchemes
{
    default         Euler; //backward ?
}

gradSchemes
{
    default         cellLimited Gauss linear 1.0; // cellLimited leastSquares 1.0;
}

divSchemes
{
    default         none;

    div(phi,U)      bounded Gauss limitedLinear 1;

    turbulence      bounded Gauss limitedLinear 1;

    div(phi,nuTilda) $turbulence;
    div(phi,k)      $turbulence;
    div(phi,epsilon) $turbulence;
    div(phi,omega)  $turbulence;

    div(nonlinearStress) Gauss linear;
    div((nuEff*dev2(T(grad(U))))) Gauss linear;
}

laplacianSchemes
{
    default         Gauss linear corrected;
    //laplacian((nu + nuTilda), nuTilda)  Gauss linear corrected;
}

interpolationSchemes
{
    default         linear;
}

snGradSchemes
{
    default         corrected;
}

wallDist
{
    method          meshWave;
}


// ************************************************************************* //
