/*--------------------------------*- C++ -*----------------------------------*\
| =========                 |                                                 |
| \\      /  F ield         | OpenFOAM: The Open Source CFD Toolbox           |
|  \\    /   O peration     | Version:  v2406                                 |
|   \\  /    A nd           | Website:  www.openfoam.com                      |
|    \\/     M anipulation  |                                                 |
\*---------------------------------------------------------------------------*/
FoamFile
{
    version     2.0;
    format      ascii;
    class       dictionary;
    object      refineMeshDict;
}
// * * * * * * * * * * * * * * * * * * * * * * * * * * * * * * * * * * * * * //

set c1;

coordinateSystem global;

globalCoeffs

    {

     e1 (1 0 0);

     e2 (0 1 0);

     //e3 (0 0 1);
    }

directions ( e1 e2 );

useHexTopology true;

geometricCut false;

writeMesh true;


// ************************************************************************* //
