/*--------------------------------*- C++ -*----------------------------------*\
| =========                 |                                                 |
| \\      /  F ield         | OpenFOAM: The Open Source CFD Toolbox           |
|  \\    /   O peration     | Version:  v2406                                 |
|   \\  /    A nd           | Website:  www.openfoam.com                      |
|    \\/     M anipulation  |                                                 |
\*---------------------------------------------------------------------------*/
FoamFile
{
    version     2.0;
    format      ascii;
    class       dictionary;
    object      topoSetDict;
}
// * * * * * * * * * * * * * * * * * * * * * * * * * * * * * * * * * * * * * //

actions
(
    {
        name    lowerWall;
        type    cellSet;
        action  new;
        source  patchToCell;
        patchToSetCoeffs
        {
            patch    lowerWall;       // Name aus boundary file
            distance 0.005;         // max. Abstand zur Patch-Fläche
        }
    }
);

// ************************************************************************* //
