/*--------------------------------*- C++ -*----------------------------------*\
| =========                 |                                                 |
| \\      /  F ield         | OpenFOAM: The Open Source CFD Toolbox           |
|  \\    /   O peration     | Version:  v2406                                 |
|   \\  /    A nd           | Website:  www.openfoam.com                      |
|    \\/     M anipulation  |                                                 |
\*---------------------------------------------------------------------------*/
FoamFile
{
    version     2.0;
    format      ascii;
    class       dictionary;
    object      topoSetDict;
}
// * * * * * * * * * * * * * * * * * * * * * * * * * * * * * * * * * * * * * //

actions

(

    {

        name c1;

        type cellSet;

        action new;

        source boxToCell;
        sourceInfo
        {
            // Achte auf (minX minY minZ) < (maxX maxY maxZ)
            box (0.0 -0.115261 -0.001) (0.5  0.1      0.0);
        }

    }



);


// ************************************************************************* //
